Version 4.1
SHEET 1 880 736
WIRE 64 208 0 208
WIRE 192 208 144 208
WIRE 192 272 192 208
WIRE 256 272 192 272
WIRE 352 272 336 272
WIRE 384 272 352 272
WIRE 480 272 464 272
WIRE 192 336 192 272
WIRE 480 384 480 272
WIRE 96 416 96 384
WIRE -96 432 -112 432
WIRE -80 432 -96 432
WIRE 0 432 0 208
WIRE 64 432 0 432
WIRE 192 448 192 400
WIRE 192 448 128 448
WIRE 352 448 352 272
WIRE 352 448 288 448
WIRE 368 448 352 448
WIRE 64 464 32 464
WIRE 480 464 480 384
WIRE 480 464 432 464
WIRE 192 480 192 448
WIRE 368 480 352 480
WIRE 96 512 96 480
WIRE 0 640 0 432
WIRE 192 640 192 544
WIRE 192 640 0 640
WIRE -96 688 -96 432
WIRE 112 688 -96 688
WIRE 288 688 288 448
WIRE 288 688 192 688
FLAG 96 304 0
FLAG 96 592 0
FLAG 192 208 V_half
FLAG 480 384 V_out
FLAG 32 464 0
FLAG -192 432 0
FLAG 352 480 0
SYMBOL diode 176 336 R0
SYMATTR InstName D1
SYMATTR Value 1N4148
SYMBOL res -96 448 R270
WINDOW 0 32 56 VTop 2
WINDOW 3 0 56 VBottom 2
SYMATTR InstName R1
SYMATTR Value 10k
SYMBOL res 160 192 R90
WINDOW 0 0 56 VBottom 2
WINDOW 3 32 56 VTop 2
SYMATTR InstName R5
SYMATTR Value 10k
SYMBOL voltage -96 432 R90
WINDOW 0 -32 56 VBottom 2
WINDOW 3 32 56 VTop 2
WINDOW 123 0 0 Left 0
WINDOW 39 0 0 Left 0
SYMATTR InstName V1
SYMATTR Value SINE(0 100m 100)
SYMBOL voltage 96 400 R180
WINDOW 123 0 0 Left 0
WINDOW 39 0 0 Left 0
SYMATTR InstName V2
SYMATTR Value 15
SYMBOL voltage 96 608 R180
WINDOW 123 0 0 Left 0
WINDOW 39 0 0 Left 0
SYMATTR InstName V3
SYMATTR Value -15
SYMBOL diode 176 480 R0
SYMATTR InstName D2
SYMATTR Value 1N4148
SYMBOL OpAmps\\UniversalOpAmp 96 448 R0
SYMATTR InstName U1
SYMBOL OpAmps\\UniversalOpAmp 400 464 R0
SYMATTR InstName U3
SYMBOL res 352 256 R90
WINDOW 0 0 56 VBottom 2
WINDOW 3 32 56 VTop 2
SYMATTR InstName R7
SYMATTR Value 5k
SYMBOL res 480 256 R90
WINDOW 0 0 56 VBottom 2
WINDOW 3 32 56 VTop 2
SYMATTR InstName R8
SYMATTR Value 10k
SYMBOL res 96 704 R270
WINDOW 0 32 56 VTop 2
WINDOW 3 0 56 VBottom 2
SYMATTR InstName R2
SYMATTR Value 10k
TEXT 312 592 Left 2 !.tran 50m
